Version 4
SHEET 1 1916 772
WIRE 1008 -816 1008 -848
WIRE 1008 -704 1008 -736
WIRE 1008 -704 944 -704
WIRE 1072 -704 1008 -704
WIRE 944 -672 944 -704
WIRE 1072 -672 1072 -704
WIRE 1408 -528 1376 -528
WIRE 1504 -528 1488 -528
WIRE 944 -448 944 -480
WIRE 1200 -448 944 -448
WIRE 1376 -448 1376 -528
WIRE 1376 -448 1280 -448
WIRE 1376 -432 1376 -448
WIRE 1408 -432 1376 -432
WIRE 1504 -416 1504 -528
WIRE 1504 -416 1472 -416
WIRE 1616 -416 1504 -416
WIRE 1648 -416 1616 -416
WIRE 1760 -416 1728 -416
WIRE 1856 -416 1824 -416
WIRE 1408 -400 1376 -400
WIRE 944 -384 944 -448
WIRE 976 -384 944 -384
WIRE 1072 -384 1072 -480
WIRE 1072 -384 1040 -384
WIRE 1200 -384 1072 -384
WIRE 1312 -384 1280 -384
WIRE 1376 -384 1376 -400
WIRE 1376 -384 1312 -384
WIRE 1616 -384 1616 -416
WIRE 944 -352 944 -384
WIRE 1072 -352 1072 -384
WIRE 1312 -352 1312 -384
WIRE 1616 -288 1616 -320
WIRE 944 -256 944 -288
WIRE 976 -256 944 -256
WIRE 1072 -256 1072 -288
WIRE 1072 -256 1040 -256
WIRE 1312 -240 1312 -272
WIRE 1536 -240 1392 -240
WIRE 1568 -240 1536 -240
WIRE 944 -224 944 -256
WIRE 1072 -224 1072 -256
WIRE 1536 -208 1536 -240
WIRE 1616 -160 1616 -192
WIRE 944 -128 944 -160
WIRE 976 -128 944 -128
WIRE 1072 -128 1072 -160
WIRE 1072 -128 1040 -128
WIRE 944 -96 944 -128
WIRE 1072 -96 1072 -128
WIRE 1536 -96 1536 -128
WIRE 1392 -48 1392 -240
WIRE 1392 -48 1168 -48
WIRE 1168 -16 1168 -48
WIRE 528 0 496 0
WIRE 944 0 944 -32
WIRE 976 0 944 0
WIRE 1072 0 1072 -32
WIRE 1072 0 1040 0
WIRE -32 32 -32 0
WIRE 64 32 64 0
WIRE 160 32 160 0
WIRE 528 32 528 0
WIRE 944 32 944 0
WIRE 1072 32 1072 0
WIRE 608 80 576 80
WIRE 720 80 688 80
WIRE 752 80 720 80
WIRE 848 80 816 80
WIRE 880 80 848 80
WIRE 1168 80 1168 48
WIRE 1168 80 1136 80
WIRE 720 112 720 80
WIRE 848 112 848 80
WIRE 1168 112 1168 80
WIRE 1424 112 1424 80
WIRE -32 144 -32 112
WIRE -32 144 -80 144
WIRE 64 144 64 112
WIRE 64 144 -32 144
WIRE 160 144 160 112
WIRE 160 144 64 144
WIRE 528 160 528 128
WIRE 944 160 944 128
WIRE 1008 160 944 160
WIRE 1072 160 1072 128
WIRE 1072 160 1008 160
WIRE -80 176 -80 144
WIRE -32 176 -32 144
WIRE 208 208 208 176
WIRE 720 224 720 192
WIRE 848 224 848 192
WIRE 1168 224 1168 192
WIRE 1168 224 848 224
WIRE 1328 224 1168 224
WIRE 1424 224 1424 192
WIRE 1424 224 1328 224
WIRE 400 256 400 224
WIRE 1328 256 1328 224
WIRE 1424 256 1424 224
WIRE -32 288 -32 256
WIRE 208 320 208 288
WIRE 896 320 896 288
WIRE 288 368 256 368
WIRE 400 368 400 336
WIRE 400 368 368 368
WIRE 528 368 400 368
WIRE 560 368 528 368
WIRE 656 368 640 368
WIRE 1328 368 1328 320
WIRE 1424 368 1424 336
WIRE 896 432 896 400
WIRE 1008 432 1008 160
WIRE 208 448 208 416
WIRE 528 464 528 368
WIRE 560 464 528 464
WIRE 656 480 656 368
WIRE 656 480 624 480
WIRE 688 480 656 480
WIRE 800 480 768 480
WIRE 832 480 800 480
WIRE 1104 480 1072 480
WIRE 560 496 528 496
WIRE 800 512 800 480
WIRE 1104 512 1104 480
WIRE 528 528 528 496
WIRE 208 560 208 528
WIRE 896 560 896 528
WIRE 1008 560 1008 528
WIRE 1008 560 896 560
WIRE 1008 592 1008 560
WIRE 800 624 800 592
WIRE 528 640 528 608
WIRE 1008 704 1008 672
FLAG -80 176 0
FLAG -32 0 +V
FLAG -32 288 -V
FLAG 64 0 Signal
FLAG 160 0 CV
FLAG 496 0 Signal
FLAG 528 160 0
FLAG 720 224 0
FLAG 1008 -848 +V
FLAG 1312 -240 0
FLAG 1440 -384 -V
FLAG 1440 -448 +V
FLAG 1856 -416 Out
FLAG 1616 -160 0
FLAG 1536 -96 0
FLAG 1424 80 +V
FLAG 1424 368 0
FLAG 1328 368 0
FLAG 1104 512 0
FLAG 1008 704 -V
FLAG 896 288 +V
FLAG 800 624 0
FLAG 592 512 -V
FLAG 592 448 +V
FLAG 528 640 0
FLAG 208 176 +V
FLAG 208 560 -V
FLAG 400 224 CV
SYMBOL voltage -32 16 R0
SYMATTR InstName V1
SYMATTR Value 12
SYMBOL voltage -32 160 R0
SYMATTR InstName V2
SYMATTR Value 12
SYMBOL voltage 64 16 R0
WINDOW 3 24 96 Invisible 2
WINDOW 123 0 0 Left 0
WINDOW 39 0 0 Left 0
SYMATTR InstName V3
SYMATTR Value PULSE(-5 5 1p 9m 1p 1p 9m)
SYMBOL voltage 160 16 R0
WINDOW 3 24 96 Invisible 2
WINDOW 123 0 0 Left 0
WINDOW 39 0 0 Left 0
SYMATTR InstName V4
SYMATTR Value PULSE(0 5 1p 2 2 1p 4)
SYMBOL pot 528 64 R0
SYMATTR InstName X1
SYMATTR SpiceLine R=100K Val=100
SYMBOL res 704 64 R90
WINDOW 0 0 56 VBottom 2
WINDOW 3 32 56 VTop 2
SYMATTR InstName R1
SYMATTR Value 10k
SYMBOL res 704 96 R0
SYMATTR InstName R2
SYMATTR Value 33k
SYMBOL cap 816 64 R90
WINDOW 0 0 32 VBottom 2
WINDOW 3 32 32 VTop 2
SYMATTR InstName C1
SYMATTR Value 10µ
SYMBOL npn 880 32 R0
WINDOW 3 56 68 Left 0
SYMATTR InstName Q1
SYMATTR Value BC847C
SYMBOL cap 1040 -16 R90
WINDOW 0 0 32 VBottom 2
WINDOW 3 32 32 VTop 2
SYMATTR InstName C2
SYMATTR Value 47n
SYMBOL npn 1136 32 M0
WINDOW 3 56 68 Left 0
SYMATTR InstName Q2
SYMATTR Value BC847C
SYMBOL diode 928 -352 R0
WINDOW 3 24 64 Left 0
SYMATTR InstName D3
SYMATTR Value 1N4148
SYMBOL diode 928 -224 R0
WINDOW 3 24 64 Left 0
SYMATTR InstName D1
SYMATTR Value 1N4148
SYMBOL diode 928 -96 R0
WINDOW 3 24 64 Left 0
SYMATTR InstName D2
SYMATTR Value 1N4148
SYMBOL diode 1056 -96 R0
WINDOW 3 24 64 Left 0
SYMATTR InstName D4
SYMATTR Value 1N4148
SYMBOL diode 1056 -224 R0
WINDOW 3 24 64 Left 0
SYMATTR InstName D5
SYMATTR Value 1N4148
SYMBOL diode 1056 -352 R0
WINDOW 3 24 64 Left 0
SYMATTR InstName D6
SYMATTR Value 1N4148
SYMBOL cap 1040 -144 R90
WINDOW 0 0 32 VBottom 2
WINDOW 3 32 32 VTop 2
SYMATTR InstName C3
SYMATTR Value 47n
SYMBOL cap 1040 -272 R90
WINDOW 0 0 32 VBottom 2
WINDOW 3 32 32 VTop 2
SYMATTR InstName C4
SYMATTR Value 47n
SYMBOL cap 1040 -400 R90
WINDOW 0 0 32 VBottom 2
WINDOW 3 32 32 VTop 2
SYMATTR InstName C5
SYMATTR Value 47n
SYMBOL diode 928 -544 R0
WINDOW 3 24 64 Left 0
SYMATTR InstName D7
SYMATTR Value 1N4148
SYMBOL diode 928 -608 R0
WINDOW 3 24 64 Left 0
SYMATTR InstName D8
SYMATTR Value 1N4148
SYMBOL diode 928 -672 R0
WINDOW 3 24 64 Left 0
SYMATTR InstName D9
SYMATTR Value 1N4148
SYMBOL diode 1056 -544 R0
WINDOW 3 24 64 Left 0
SYMATTR InstName D10
SYMATTR Value 1N4148
SYMBOL diode 1056 -608 R0
WINDOW 3 24 64 Left 0
SYMATTR InstName D11
SYMATTR Value 1N4148
SYMBOL diode 1056 -672 R0
WINDOW 3 24 64 Left 0
SYMATTR InstName D12
SYMATTR Value 1N4148
SYMBOL res 992 -832 R0
SYMATTR InstName R3
SYMATTR Value 1k
SYMBOL res 1296 -464 R90
WINDOW 0 0 56 VBottom 2
WINDOW 3 32 56 VTop 2
SYMATTR InstName R4
SYMATTR Value 6.8k
SYMBOL res 1296 -400 R90
WINDOW 0 0 56 VBottom 2
WINDOW 3 32 56 VTop 2
SYMATTR InstName R5
SYMATTR Value 6.8k
SYMBOL res 1296 -368 R0
SYMATTR InstName R6
SYMATTR Value 100k
SYMBOL Own\ Elements\\OpAmps\\TL072 1440 -480 R0
SYMATTR InstName U1
SYMBOL res 1504 -544 R90
WINDOW 0 0 56 VBottom 2
WINDOW 3 32 56 VTop 2
SYMATTR InstName R7
SYMATTR Value 100k
SYMBOL res 1744 -432 R90
WINDOW 0 0 56 VBottom 2
WINDOW 3 32 56 VTop 2
SYMATTR InstName R8
SYMATTR Value 1k
SYMBOL cap 1824 -432 R90
WINDOW 0 0 32 VBottom 2
WINDOW 3 32 32 VTop 2
SYMATTR InstName C6
SYMATTR Value 4.7µ
SYMBOL cap 1600 -320 M180
WINDOW 0 24 56 Left 2
WINDOW 3 24 8 Left 2
SYMATTR InstName C7
SYMATTR Value 4.7µ
SYMBOL pot 1616 -256 M0
SYMATTR InstName X2
SYMATTR SpiceLine R=50K Val=50
SYMBOL res 1520 -224 R0
SYMATTR InstName R9
SYMATTR Value 33k
SYMBOL cap 1152 -16 R0
SYMATTR InstName C8
SYMATTR Value 10µ
SYMBOL res 832 96 R0
SYMATTR InstName R10
SYMATTR Value 2.2k
SYMBOL res 1152 96 R0
SYMATTR InstName R11
SYMATTR Value 2.2k
SYMBOL cap 1312 256 R0
SYMATTR InstName C9
SYMATTR Value 10µ
SYMBOL res 1408 240 R0
SYMATTR InstName R12
SYMATTR Value 10k
SYMBOL res 1408 96 R0
SYMATTR InstName R13
SYMATTR Value 10k
SYMBOL npn 1072 432 M0
WINDOW 3 56 68 Left 0
SYMATTR InstName Q3
SYMATTR Value BC847C
SYMBOL res 992 576 R0
SYMATTR InstName R14
SYMATTR Value 4.7k
SYMBOL npn 832 432 R0
WINDOW 3 56 68 Left 0
SYMATTR InstName Q4
SYMATTR Value BC847C
SYMBOL res 880 304 R0
SYMATTR InstName R15
SYMATTR Value 4.7k
SYMBOL res 784 496 R0
SYMATTR InstName R16
SYMATTR Value 2.2k
SYMBOL res 784 464 R90
WINDOW 0 0 56 VBottom 2
WINDOW 3 32 56 VTop 2
SYMATTR InstName R17
SYMATTR Value 33k
SYMBOL Own\ Elements\\OpAmps\\TL072 592 416 R0
SYMATTR InstName U2
SYMBOL res 656 352 R90
WINDOW 0 0 56 VBottom 2
WINDOW 3 32 56 VTop 2
SYMATTR InstName R18
SYMATTR Value 10k
SYMBOL res 512 512 R0
SYMATTR InstName R19
SYMATTR Value 10k
SYMBOL res 384 352 R90
WINDOW 0 0 56 VBottom 2
WINDOW 3 32 56 VTop 2
SYMATTR InstName R20
SYMATTR Value 33k
SYMBOL pot 208 352 R0
SYMATTR InstName X3
SYMATTR SpiceLine R=100K Val=0
SYMBOL res 192 192 R0
SYMATTR InstName R21
SYMATTR Value 33k
SYMBOL res 192 432 R0
SYMATTR InstName R22
SYMATTR Value 2.2k
SYMBOL res 384 240 R0
SYMATTR InstName R23
SYMATTR Value 10k
TEXT -100 360 Left 2 !.tran 5\n.wave "Filter.wav" 16 44.1k V(Out)
